testcases/case9241pegase_OPF1.m
function mpc = case9241pegase_OPF1
%CASE9241PEGASE_OPF1

%% MATPOWER Case Format : Version 2
mpc.version = '2';

%%-----  Power Flow Data  -----%%
%% system MVA base
mpc.baseMVA = 100;

%% bus data
%	bus_i	type	Pd	Qd	Gs	Bs	area	Vm	Va	baseKV	zone	Vmax	Vmin
mpc.bus = [
	1	1	378.4	98.5	0	16.61	0	1	0	220	6	1.2	0.8;
	2	2	0	0	0	0	0	1	0	154	1	1.2	0.8;
	3	1	151	48.8	0	4.69	0	1	0	220	5	1.2	0.8;
	4	1	171.41	23.4	0	2.1	0	1	0	220	5	1.2	0.8;
	5	1	45.95	14	0	13.34	0	1	0	220	6	1.2	0.8;
	6	2	0	0	0	0	0	1	0	380	6	1.2	0.8;
	7	1	31.03	10.3	0	0.65	0	1	0	110	21	1.2	0.8;
	8	2	0	0	0	0	0	1	0	154	1	1.2	0.8;
	9	1	14.3	2	0	1.91	0	1	0	154	1	1.2	0.8;
	10	1	134	24.7	0	12.44	0	1	0	220	5	1.2	0.8;
	11	1	0	0	0	0	0	1	0	150	9	1.2	0.8;
	12	1	-6.11	2	0	0.47	0	1	0	150	9	1.2	0.8;
	13	1	-22.74	-8.32	0	6.5	0	1	0	220	6	1.2	0.8;
	14	1	13.5	14.8	0	132.44	0	1	0	380	9	1.2	0.8;
	15	1	59.67	26.7	0	12.84	0	1	0	220	4	1.2	0.8;
	16	1	30.6	4.3	0	5.15	0	1	0	154	1	1.2	0.8;
	17	1	67.68	12.1	0	2.18	0	1	0	220	3	1.2	0.8;
	18	2	0	0	0	0	0	1	0	380	3	1.2	0.8;
	19	1	25.33	7.5	0	2.39	0	1	0	110	12	1.2	0.8;
	20	1	1.4	0.2	0	4.93	0	1	0	154	1	1.2	0.8;
	21	1	161.2	39.3	0	30.71	0	1	0	220	5	1.2	0.8;
	22	1	0	0	0	0.85	0	1	0	220	5	1.2	0.8;
	23	1	19.62	7.1	0	1.15	0	1	0	110	19	1.2	0.8;
	24	1	17.22	5.7	0	1.22	0	1	0	110	21	1.2	0.8;
	25	2	0	0	0	0	0	1	0	220	3	1.2	0.8;
	26	1	167.3	54.8	0	110.54	0	1	0	380	5	1.2	0.8;
	27	1	0	0	0	14.82	0	1	0	380	13	1.2	0.8;
	28	1	0	0	0	0	0	1	0	150	9	1.2	0.8;
	29	1	152.9	49.4	0	27.65	0	1	0	380	5	1.2	0.8;
	30	1	0	0	0	0.56	0	1	0	150	9	1.2	0.8;
	31	1	69.68	43.2	0	6.3	0	1	0	150	9	1.2	0.8;
	32	2	0	0	0	0	0	1	0	220	4	1.2	0.8;
	33	2	0	0	0	0	0	1	0	220	4	1.2	0.8;
	34	1	13.52	4.9	0	1.8	0	1	0	110	19	1.2	0.8;
	35	1	10.51	3.5	0	0.31	0	1	0	110	12	1.2	0.8;
	36	1	0	0	0	15.34	0	1	0	220	19	1.2	0.8;
	37	1	9.21	2.6	0	2	0	1	0	110	18	1.2	0.8;
	38	1	42.75	12.8	0	13.3	0	1	0	220	8	1.2	0.8;
	39	2	0	0	0	0	0	1	0	150	10	1.2	0.8;
	40	1	16.02	4.54	0	0.1	0	1	0	110	23	1.2	0.8;
	41	1	27.9	4	0	4.23	0	1	0	154	1	1.2	0.8;
	42	1	20.82	7.9	0	26.89	0	1	0	380	4	1.2	0.8;
	43	1	12.6	1.8	0	2.03	0	1	0	154	1	1.2	0.8;
	44	1	0	0	0	7.27	0	1	0	220	5	1.2	0.8;
	45	1	10.11	3.7	0	0.81	0	1	0	110	19	1.2	0.8;
	46	1	10.01	2.7	0	1.14	0	1	0	110	18	1.2	0.8;
	47	1	6.31	0	0	0.67	0	1	0	110	18	1.2	0.8;
	48	1	2.9	0.9	0	0.6	0	1	0	110	15	1.2	0.8;
	49	2	0	0	0	0	0	1	0	220	6	1.2	0.8;
	50	1	48.8	6.9	0	8.71	0	1	0	154	1	1.2	0.8;
	51	2	0	0	0	0	0	1	0	220	4	1.2	0.8;
	52	1	127.6	31.8	0	20.51	0	1	0	150	8	1.2	0.8;
	53	1	48.65	16.1	0	7.14	0	1	0	220	5	1.2	0.8;
	54	1	110.5	-26.8	0	16.37	0	1	0	220	6	1.2	0.8;
	55	1	0	0	0	1.23	0	1	0	220	3	1.2	0.8;
	56	1	140	79.7	0	6.5	0	1	0	220	3	1.2	0.8;
	57	1	21.6	3	0	3.54	0	1	0	154	1	1.2	0.8;
	58	1	0	0	0	2.31	0	1	0	380	5	1.2	0.8;
	59	1	119.2	20.7	0	3.31	0	1	0	220	5	1.2	0.8;
	60	1	0.24	-1.66	0	0.65	0	1	0	110	18	1.2	0.8;
	61	1	0	0	0	58.57	0	1	0	380	3	1.2	0.8;
	62	1	0	0	0	1.34	0	1	0	110	18	1.2	0.8;
	63	1	187.9	110.2	0	21.25	0	1	0	380	3	1.2	0.8;
	64	1	14.92	5.5	0	1.31	0	1	0	110	15	1.2	0.8;
	65	1	-18.52	6.1	0	0.79	0	1	0	150	9	1.2	0.8;
	66	1	4.61	1.7	0	2.32	0	1	0	110	19	1.2	0.8;
	67	1	0	0	0	82.13	0	1	0	380	18	1.2	0.8;
	68	1	10.81	5.1	0	1.09	0	1	0	110	18	1.2	0.8;
	69	1	62.87	20.5	0	1.15	0	1	0	150	8	1.2	0.8;
	70	1	0	0	0	2.64	0	1	0	154	1	1.2	0.8;
	71	1	126.3	42.4	0	55.24	0	1	0	150	8	1.2	0.8;
	72	1	6.91	-4.6	0	5.75	0	1	0	220	4	1.2	0.8;
	73	1	15.72	5.2	0	0.11	0	1	0	110	12	1.2	0.8;
	74	1	0	0	0	0	0	1	0	150	9	1.2	0.8;
	75	1	38.74	6.1	0	1.17	0	1	0	220	4	1.2	0.8;
	76	1	22.13	10.7	0	14.21	0	1	0	220	8	1.2	0.8;
	77	1	0	0	0	0.73	0	1	0	220	4	1.2	0.8;
	78	1	0	0	0	0.83	0	1	0	110	18	1.2	0.8;
	79	1	138.8	136.7	0	8.76	0	1	0	380	3	1.2	0.8;
	80	2	0	0	0	0	0	1	0	220	23	1.2	0.8;
	81	1	67.76	19.18	0	1.47	0	1	0	150	1	1.2	0.8;
	82	1	22.02	5.1	0	0.69	0	1	0	110	1	1.2	0.8;
	83	1	0	0	0	6.62	0	1	0	220	3	1.2	0.8;
	84	1	1	0.3	0	0.19	0	1	0	110	19	1.2	0.8;
	85	1	20.9	3	0	5.74	0	1	0	154	1	1.2	0.8;
	86	1	0	0	0	0.12	0	1	0	150	9	1.2	0.8;
	87	1	21.52	5.1	0	0.5	0	1	0	110	18	1.2	0.8;
	88	1	71.98	28.8	0	11	0	1	0	220	6	1.2	0.8;
	89	1	0	0	0	4.53	0	1	0	380	2	1.2	0.8;
	90	1	363.25	115.39	0	3.95	0	1	0	220	5	1.2	0.8;
	91	1	0	0	0	0.02	0	1	0	150	8	1.2	0.8;
	92	1	192.9	73.3	0	20.75	0	1	0	380	3	1.2	0.8;
	93	1	17.52	6.3	0	0.26	0	1	0	110	19	1.2	0.8;
	94	1	33.14	12	0	0.65	0	1	0	110	19	1.2	0.8;
	95	1	40.45	25	0	9.82	0	1	0	150	9	1.2	0.8;
	96	1	193.17	53.37	0	4.58	0	1	0	220	5	1.2	0.8;
	97	1	0	0	0	9.38	0	1	0	380	1	1.2	0.8;
	98	1	90.7	25.5	0	3.11	0	1	0	220	3	1.2	0.8;
	99	1	176.3	-58.9	0	24.77	0	1	0	380	6	1.2	0.8;
	100	1	35.94	22.3	0	0	0	1	0	150	9	1.2	0.8;
	101	1	0	0	0	0.29	0	1	0	150	9	1.2	0.8;
	102	1	0	0	0	3.77	0	1	0	220	6	1.2	0.8;
	103	1	65.07	40.3	0	5.43	0	1	0	150	9	1.2	0.8;
	104	1	51.36	-8.8	0	2.15	0	1	0	220	6	1.2	0.8;
	105	1	0	0	0	82.55	0	1	0	380	6	1.2	0.8;
	106	1	0	0	0	31.19	0	1	0	380	23	1.2	0.8;
	107	2	0	0	0	0	0	1	0	380	3	1.2	0.8;
	108	1	3.8	1.3	0	0.4	0	1	0	110	18	1.2	0.8;
	109	1	137	19.5	0	4.9	0	1	0	154	1	1.2	0.8;
	110	1	0	0	0	0	0	1	0	150	9	1.2	0.8;
	111	1	61.07	36	0	3.09	0	1	0	220	11	1.2	0.8;
	112	1	0	0	0	3.24	0	1	0	220	3	1.2	0.8;
	113	1	0	0	0	6.53	0	1	0	380	5	1.2	0.8;
	114	1	55.7	7.9	0	4.21	0	1	0	154	1	1.2	0.8;
	115	1	0	0	0	4.21	0	1	0	220	5	1.2	0.8;
	116	1	1.8	0.7	0	0.3	0	1	0	110	19	1.2	0.8;
	117	1	40.04	16	0	0.52	0	1	0	110	18	1.2	0.8;
	118	1	0	0	0	36.56	0	1	0	380	5	1.2	0.8;
	119	1	0	0	0	0.09	0	1	0	150	9	1.2	0.8;
	120	1	140.6	20.1	0	13.81	0	1	0	154	1	1.2	0.8;
	121	1	45.15	14.1	0	0.19	0	1	0	110	15	1.2	0.8;
	122	1	0	0	0	5.75	0	1	0	220	3	1.2	0.8;
	123	2	0	0	0	0	0	1	0	220	11	1.2	0.8;
	124	2	0	0	0	0	0	1	0	220	5	1.2	0.8;
	125	1	3.42	2.68	0	1.46	0	1	0	110	18	1.2	0.8;
	126	1	0	0	0	2.64	0	1	0	154	1	1.2	0.8;
	127	1	0	0	0	4.3	0	1	0	220	6	1.2	0.8;
	128	1	23.73	12.7	0	0.52	0	1	0	220	5	1.2	0.8;
	129	1	121.9	7.4	0	1.34	0	1	0	220	3	1.2	0.8;
	130	1	0	0	0	47.75	0	1	0	380	10	1.2	0.8;
	131	1	47.35	16.4	0	4.08	0	1	0	110	22	1.2	0.8;
	132	1	0	0	0	21.39	0	1	0	380	1	1.2	0.8;
	133	1	38.14	12.5	0	6.28	0	1	0	150	8	1.2	0.8;
	134	1	54.2	7.8	0	94.9	0	1	0	400	1	1.2	0.8;
	135	1	130.6	84.9	0	4.22	0	1	0	220	7	1.2	0.8;
	136	1	7.91	2.6	0	0.74	0	1	0	110	12	1.2	0.8;
	137	1	42.1	74.61	0	37.58	0	1	0	150	1	1.2	0.8;
	138	1	-75.38	7.8	0	29.9	0	1	0	380	10	1.2	0.8;
	139	1	0	0	0	36.92	0	1	0	380	8	1.2	0.8;
	140	1	0	0	0	4.14	0	1	0	220	8	1.2	0.8;
	141	2	0	0	0	0	0	1	0	220	13	1.2	0.8;
	142	2	0	0	0	0	0	1	0	220	6	1.2	0.8;
	143	1	0	0	0	0	0	1	0	150	8	1.2	0.8;
	144	1	0	0	0	98.53	0	1	0	380	14	1.2	0.8;
	145	1	38.34	5.6	0	7.64	0	1	0	220	5	1.2	0.8;
	146	1	269.6	65.7	0	0	0	1	0	120	20	1.2	0.8;
	147	2	0	0	0	0	0	1	0	220	7	1.2	0.8;
	148	1	32.34	12	0	6.1	0	1	0	220	5	1.2	0.8;
	149	1	100.1	45.1	0	1.11	0	1	0	380	6	1.2	0.8;
	150	2	0	0	0	0	0	1	0	220	5	1.2	0.8;
	151	2	0	0	0	0	0	1	0	154	1	1.2	0.8;
	152	1	7	1	0	4.69	0	1	0	154	1	1.2	0.8;
	153	1	0	0	0	0.56	0	1	0	150	7	1.2	0.8;
	154	1	0	0	0	1.29	0	1	0	110	12	1.2	0.8;
	155	1	0	0	0	1.7	0	1	0	110	21	1.2	0.8;
	156	1	40.34	25	0	1.14	0	1	0	150	9	1.2	0.8;
	157	1	9.21	3.3	0	1.2	0	1	0	110	19	1.2	0.8;
	158	1	166	60.3	0	0.57	0	1	0	220	3	1.2	0.8;
	159	1	0	0	0	0.1	0	1	0	150	9	1.2	0.8;
	160	1	79.4	11.3	0	4.92	0	1	0	154	1	1.2	0.8;
	161	1	0	0	0	0.16	0	1	0	150	9	1.2	0.8;
	162	1	0	0	0	66.65	0	1	0	380	6	1.2	0.8;
	163	1	147.76	32.73	0	8.34	0	1	0	220	5	1.2	0.8;
	164	1	0	0	0	5.17	0	1	0	150	8	1.2	0.8;
	165	1	26.8	-3.7	0	51.26	0	1	0	380	9	1.2	0.8;
	166	2	0	0	0	0	0	1	0	220	3	1.2	0.8;
	167	1	257.5	131.1	0	1.08	0	1	0	220	3	1.2	0.8;
	168	1	16.7	2.4	0	6.09	0	1	0	154	1	1.2	0.8;
	169	1	0	0	0	1.91	0	1	0	150	9	1.2	0.8;
	170	1	0	0	0	2.35	0	1	0	220	1	1.2	0.8;
	171	1	100.8	13.2	0	5.24	0	1	0	220	5	1.2	0.8;
	172	1	111.7	10.96	0	4.22	0	1	0	220	4	1.2	0.8;
	173	1	90.38	-5.05	0	8.49	0	1	0	220	13	1.2	0.8;
	174	1	370.5	-17	0	9.91	0	1	0	220	5	1.2	0.8;
	175	1	9.91	3.2	0	0.67	0	1	0	110	12	1.2	0.8;
	176	1	-0.69	-5.46	0	5.07	0	1	0	150	9	1.2	0.8;
	177	1	94.9	36.2	0	16.46	0	1	0	220	10	1.2	0.8;
	178	1	81.09	48	0	0.03	0	1	0	150	9	1.2	0.8;
	179	2	0	0	0	0	0	1	0	380	4	1.2	0.8;
	180	1	0	0	0	0.54	0	1	0	110	21	1.2	0.8;
	181	1	54.96	16.9	0	3.37	0	1	0	110	22	1.2	0.8;
	182	1	19.32	26	0	0.69	0	1	0	220	3	1.2	0.8;
	183	1	0	0	0	1.83	0	1	0	150	9	1.2	0.8;
	184	1	0	0	0	2.42	0	1	0	220	5	1.2	0.8;
	185	1	20.9	3	0	4.11	0	1	0	154	1	1.2	0.8;
	186	1	19.92	6.6	0	0.56	0	1	0	110	21	1.2	0.8;
	187	1	57.16	2	0	1.48	0	1	0	110	22	1.2	0.8;
	188	1	36.84	13.9	0	3.3	0	1	0	220	5	1.2	0.8;
	189	1	-15.04	-5.12	0	0.43	0	1	0	110	18	1.2	0.8;
	190	2	0	0	0	0	0	1	0	110	19	1.2	0.8;
	191	1	0	0	0	14.19	0	1	0	220	6	1.2	0.8;
	192	2	0	0	0	0	0	1	0	380	3	1.2	0.8;
	193	1	119.9	3.7	0	3.33	0	1	0	220	3	1.2	0.8;
	194	2	0	0	0	0	0	1	0	150	8	1.2	0.8;
	195	1	73.14	21.55	0	8.52	0	1	0	220	5	1.2	0.8;
	196	1	0	0	0	12.48	0	1	0	220	5	1.2	0.8;
	197	2	0	0	0	0	0	1	0	380	3	1.2	0.8;
	198	1	39.74	11.8	0	1.44	0	1	0	220	5	1.2	0.8;
	199	1	86.8	28.4	0	1.34	0	1	0	150	8	1.2	0.8;
	200	1	22.42	2.1	0	0.19	0	1	0	150	1	1.2	0.8;
...
];

%% generator data
%	bus	Pg	Qg	Qmax	Qmin	Vg	mBase	status	Pmax	Pmin	Pc1	Pc2	Qc1min	Qc1max	Qc2min	Qc2max	ramp_agc	ramp_10	ramp_30	ramp_q	apf
mpc.gen = [
	2	-81.4	6.64	42.19	-20.45	1.03173	100	1	100	-108.53	0	0	0	0	0	0	0	0	0	0	0;
	6	701	183.79	524.53	-211.57	1.03848	100	1	1200	400	0	0	0	0	0	0	0	0	0	0	0;
	8	499.7	-0.95	251.73	-246.25	1.02301	100	1	524.68	0	0	0	0	0	0	0	0	0	0	0	0;
	18	467.5	201.91	212.97	-93.48	1.02673	100	1	500	166.67	0	0	0	0	0	0	0	0	0	0	0;
	25	319.6	164.04	179.43	-66.21	1.02853	100	1	400	0	0	0	0	0	0	0	0	0	0	0	0;
	32	8	-1.02	5.91	-4.56	1.00322	100	1	16.2	0	0	0	0	0	0	0	0	0	0	0	0;
	33	5.3	-0.56	2.27	-1.08	1.02653	100	1	5.38	0	0	0	0	0	0	0	0	0	0	0	0;
	39	34.3	4.77	17.76	-7.14	1.00351	100	1	40	0	0	0	0	0	0	0	0	0	0	0	0;
	49	309.2	62.33	218.52	-75.97	1.02032	100	1	480	0	0	0	0	0	0	0	0	0	0	0	0;
	51	-144.5	-0.31	5.48	-4.19	1.00666	100	1	100	-192.67	0	0	0	0	0	0	0	0	0	0	0;
	80	43.2	2.23	139.94	-43.78	1.06839	100	1	100	28.8	0	0	0	0	0	0	0	0	0	0	0;
	107	570	-75.96	253.85	-113.79	1.08314	100	1	600	200	0	0	0	0	0	0	0	0	0	0	0;
	123	24.9	8.45	18.84	-6.06	1.0415	100	1	40	0	0	0	0	0	0	0	0	0	0	0	0;
	124	861.3	69.97	440.32	-172.59	1.07711	100	1	1000	333.33	0	0	0	0	0	0	0	0	0	0	0;
	141	-73.2	5.11	18.59	-6.33	1.05072	100	1	100	-97.6	0	0	0	0	0	0	0	0	0	0	0;
	142	158.7	2.2	78.15	-32.4	1.0423	100	1	180	0	0	0	0	0	0	0	0	0	0	0	0;
	147	-16	9.74	70.12	-29.5	1.05804	100	1	100	-21.33	0	0	0	0	0	0	0	0	0	0	0;
	150	67.29	-5.08	77.09	-22.54	1.06213	100	1	160	0	0	0	0	0	0	0	0	0	0	0	0;
	151	-110.35	-11.36	37.97	-58.18	1.01375	100	1	100	-147.13	0	0	0	0	0	0	0	0	0	0	0;
	166	292.2	107.13	127.67	-56.53	1.04075	100	1	300	0	0	0	0	0	0	0	0	0	0	0	0;
	179	-179.2	-30.19	52.64	-51.72	1.04366	100	1	100	-238.93	0	0	0	0	0	0	0	0	0	0	0;
	190	90.69	31	54.24	-20.63	1.02554	100	1	120	0	0	0	0	0	0	0	0	0	0	0	0;
	192	135.8	12.15	91.61	-30.98	1.04835	100	1	200	0	0	0	0	0	0	0	0	0	0	0	0;
	194	268.6	42.2	130.19	-53.53	1.02931	100	1	300	100	0	0	0	0	0	0	0	0	0	0	0;
	197	292.2	-57.05	123.89	-59.54	1.09999	100	1	300	0	0	0	0	0	0	0	0	0	0	0	0;
	201	5.2	-0.6	2.27	-1.07	1.01914	100	1	5.37	0	0	0	0	0	0	0	0	0	0	0	0;
	209	25.4	9.44	18.7	-6.17	1.02683	100	1	40	0	0	0	0	0	0	0	0	0	0	0	0;
	214	-175.2	1.82	192	-52.89	1.07976	100	1	100	-233.6	0	0	0	0	0	0	0	0	0	0	0;
	219	1171	704.29	937.43	-288.16	1.05662	100	1	2000	666.67	0	0	0	0	0	0	0	0	0	0	0;
	220	668.7	-115.27	402.92	-146.95	1.04712	100	1	900	300	0	0	0	0	0	0	0	0	0	0	0;
	221	296	43.03	183.92	-65.3	1.03064	100	1	400	133.33	0	0	0	0	0	0	0	0	0	0	0;
	222	-147.3	2.36	12.51	-5.62	1.03049	100	1	100	-196.4	0	0	0	0	0	0	0	0	0	0	0;
	239	-7.05	7.21	38.52	-11.24	1.01871	100	1	100	-9.4	0	0	0	0	0	0	0	0	0	0	0;
	246	307.1	-22.47	378.08	-112.59	1.06685	100	1	800	266.67	0	0	0	0	0	0	0	0	0	0	0;
	248	-172	11.84	37.47	-12.35	1.04399	100	1	100	-229.33	0	0	0	0	0	0	0	0	0	0	0;
	255	423.2	-30.86	220.66	-85.89	1.0596	100	1	500	166.67	0	0	0	0	0	0	0	0	0	0	0;
	262	-115.4	12.33	38.1	-11.72	1.03379	100	1	100	-153.87	0	0	0	0	0	0	0	0	0	0	0;
	263	-34.4	-3.16	5.05	-6.95	1.02868	100	1	100	-45.87	0	0	0	0	0	0	0	0	0	0	0;
	278	-64.1	7.04	37.7	-12.09	1.01415	100	1	100	-85.47	0	0	0	0	0	0	0	0	0	0	0;
	282	1245.7	-279.39	924.64	-300.35	1.07761	100	1	2000	666.67	0	0	0	0	0	0	0	0	0	0	0;
	289	52.7	-3.66	26.02	-10.81	1.04678	100	1	60	0	0	0	0	0	0	0	0	0	0	0	0;
	294	250	10.09	45.1	-21.32	1.00338	100	1	480	160	0	0	0	0	0	0	0	0	0	0	0;
	299	975.9	97.97	721.25	-258.71	1.03925	100	1	1600	533.33	0	0	0	0	0	0	0	0	0	0	0;
	309	95.1	36.53	42.62	-18.72	0.98909	100	1	100	0	0	0	0	0	0	0	0	0	0	0	0;
	310	346.18	632.57	99998.999	-99998.999	1.15532	100	1	700	200	0	0	0	0	0	0	0	0	0	0	0;
	313	9.6	-1.71	4.83	-7.17	1.02526	100	1	10.08	0	0	0	0	0	0	0	0	0	0	0	0;
	320	1760	-355.74	320.04	-843.96	1.01334	100	1	1812	604	0	0	0	0	0	0	0	0	0	0	0;
	324	94	30.47	95.32	-27.29	1.06328	100	1	200	0	0	0	0	0	0	0	0	0	0	0	0;
	325	-21.4	0.06	1.93	-1.01	1.00962	100	1	100	-28.53	0	0	0	0	0	0	0	0	0	0	0;
	328	-77.9	0.12	188.91	-56.14	1.01762	100	1	100	-103.87	0	0	0	0	0	0	0	0	0	0	0;
	338	83.7	3.24	55.54	-19.16	1.04696	100	1	120	0	0	0	0	0	0	0	0	0	0	0	0;
	347	50.8	-13.47	33.33	-42.67	1.02095	100	1	53.42	0	0	0	0	0	0	0	0	0	0	0	0;
	348	160.4	3.38	110.57	-36.9	1.05789	100	1	240	0	0	0	0	0	0	0	0	0	0	0	0;
	352	1250.4	256.45	926.35	-297.68	1.04884	100	1	2000	666.67	0	0	0	0	0	0	0	0	0	0	0;
	361	238.3	27.11	186.39	-58.5	1.05949	100	1	400	133.33	0	0	0	0	0	0	0	0	0	0	0;
	366	185.6	-33.91	61.97	-120.27	1.00885	100	1	196	65.33	0	0	0	0	0	0	0	0	0	0	0;
	372	-54.9	-13.56	282.95	-84.3	1.07499	100	1	100	-73.2	0	0	0	0	0	0	0	0	0	0	0;
	382	25.68	11.15	38.4	-11.44	1.06085	100	1	80	0	0	0	0	0	0	0	0	0	0	0	0;
	389	69	17.57	56.73	-17.84	1.01773	100	1	120	0	0	0	0	0	0	0	0	0	0	0	0;
	394	2404.4	-96.56	1224.26	-490.17	1.06315	100	1	2800	933.33	0	0	0	0	0	0	0	0	0	0	0;
	406	31	10.74	22.22	-17.35	1.0124	100	1	61.23	0	0	0	0	0	0	0	0	0	0	0	0;
	409	-62	-7.35	24.32	-29.67	1.03283	100	1	100	-82.67	0	0	0	0	0	0	0	0	0	0	0;
	411	35.9	4.64	17.66	-7.27	1.03248	100	1	40	0	0	0	0	0	0	0	0	0	0	0	0;
	413	231	21.57	124.12	-49.84	1.04842	100	1	280	0	0	0	0	0	0	0	0	0	0	0	0;
	423	-19.2	0.02	5.22	-2.6	1.0303	100	1	100	-25.6	0	0	0	0	0	0	0	0	0	0	0;
	424	636.3	269.64	304.38	-125.48	1.05124	100	1	700	233.33	0	0	0	0	0	0	0	0	0	0	0;
	433	436	206.71	217.18	-89.22	1.02489	100	1	500	166.67	0	0	0	0	0	0	0	0	0	0	0;
	434	-2.8	-1.11	2.75	-3.25	1.038	100	1	100	-3.73	0	0	0	0	0	0	0	0	0	0	0;
	438	74	9.04	45.1	-16.18	1.0387	100	1	100	0	0	0	0	0	0	0	0	0	0	0	0;
	439	308.6	-59.31	175.16	-69.21	1.07249	100	1	400	0	0	0	0	0	0	0	0	0	0	0	0;
	440	83.1	-1.51	55.73	-19.01	1.02809	100	1	120	0	0	0	0	0	0	0	0	0	0	0	0;
	442	-40.35	-0.32	1.95	-0.93	1.01173	100	1	100	-53.8	0	0	0	0	0	0	0	0	0	0	0;
	447	37.7	2.42	16.84	-8.04	1.03522	100	1	40	0	0	0	0	0	0	0	0	0	0	0	0;
	452	-56.8	16.67	37.86	-11.94	1.01338	100	1	100	-75.73	0	0	0	0	0	0	0	0	0	0	0;
	453	260.1	69.83	257.23	-74.4	1.02471	100	1	540	0	0	0	0	0	0	0	0	0	0	0	0;
	456	-28.08	-11.78	44.8	-39.81	0.99985	100	1	100	-37.44	0	0	0	0	0	0	0	0	0	0	0;
	484	229.5	-43.46	132.41	-50.85	1.05409	100	1	300	0	0	0	0	0	0	0	0	0	0	0	0;
	489	-107.4	-0.53	6.28	-4.82	1.00803	100	1	100	-143.2	0	0	0	0	0	0	0	0	0	0	0;
	491	105.4	83.32	94.56	-28.1	1.03319	100	1	200	0	0	0	0	0	0	0	0	0	0	0	0;
	505	110.6	-14.73	37.34	-58.33	1.02217	100	1	116.03	0	0	0	0	0	0	0	0	0	0	0	0;
	511	101.4	-14.26	94.38	-28.04	1.08159	100	1	200	0	0	0	0	0	0	0	0	0	0	0	0;
	515	324.82	28.39	72.5	-27.24	1.04516	100	1	700	200	0	0	0	0	0	0	0	0	0	0	0;
	516	539.4	184.01	261.79	-106.67	1.07129	100	1	600	200	0	0	0	0	0	0	0	0	0	0	0;
	518	-410.3	1.69	85.63	-37.21	1.06762	100	1	100	-547.07	0	0	0	0	0	0	0	0	0	0	0;
	524	69	-13.09	30.15	-43.07	1.04698	100	1	72.45	0	0	0	0	0	0	0	0	0	0	0	0;
	541	118.2	-15	7.81	-27.19	1.03819	100	1	124.19	0	0	0	0	0	0	0	0	0	0	0	0;
	564	-51.67	-3.19	18.47	-19.35	1.06702	100	1	100	-68.89	0	0	0	0	0	0	0	0	0	0	0;
	578	-110.3	6.59	25.88	-11.01	1.04215	100	1	100	-147.07	0	0	0	0	0	0	0	0	0	0	0;
	583	-270	4.89	17.88	-7.03	1.04859	100	1	100	-360	0	0	0	0	0	0	0	0	0	0	0;
	587	246	1.47	185.56	-59.39	1.04008	100	1	400	133.33	0	0	0	0	0	0	0	0	0	0	0;
	590	100.7	135.79	380.31	-110.08	1.065	100	1	300	67.13	0	0	0	0	0	0	0	0	0	0	0;
	615	38.2	2.13	17.09	-7.79	1.06859	100	1	40	0	0	0	0	0	0	0	0	0	0	0	0;
	616	379.2	31.85	217.9	-81.16	1.04484	100	1	480	160	0	0	0	0	0	0	0	0	0	0	0;
	618	670.3	-26.77	351.18	-139.11	1.02278	100	1	800	266.67	0	0	0	0	0	0	0	0	0	0	0;
	628	152.4	41.23	78.79	-31.69	0.98206	100	1	180	0	0	0	0	0	0	0	0	0	0	0	0;
	636	101.89	2.48	52.99	-21.87	1.04241	100	1	120	0	0	0	0	0	0	0	0	0	0	0	0;
	637	21.3	-0.33	11.2	-8.44	1.03115	100	1	22.32	0	0	0	0	0	0	0	0	0	0	0	0;
	639	-46.2	106.37	135.52	-38.9	1.03353	100	1	100	-61.6	0	0	0	0	0	0	0	0	0	0	0;
	642	63.33	-55.21	90.13	-93.03	1.03137	100	1	276.09	0	0	0	0	0	0	0	0	0	0	0	0;
	648	47.2	2.22	37.95	-11.87	1.02749	100	1	80	0	0	0	0	0	0	0	0	0	0	0	0;
	672	67	-0.69	71.32	-62.92	1.02121	100	1	205.81	0	0	0	0	0	0	0	0	0	0	0	0;
	682	37.4	8.11	38.77	-11.06	1.06079	100	1	80	0	0	0	0	0	0	0	0	0	0	0	0;
	686	-21.65	-8.24	34.75	-34.26	1.0139	100	1	100	-28.86	0	0	0	0	0	0	0	0	0	0	0;
	692	274.8	-4.69	182.17	-62.79	1.05901	100	1	400	133.33	0	0	0	0	0	0	0	0	0	0	0;
	697	634.8	27.98	357.4	-132.75	1.03172	100	1	800	266.67	0	0	0	0	0	0	0	0	0	0	0;
	698	274.8	3.65	129.94	-53.91	0.99966	100	1	300	100	0	0	0	0	0	0	0	0	0	0	0;
	709	16	-8.56	22.23	-20.83	1.06887	100	1	65.3	0	0	0	0	0	0	0	0	0	0	0	0;
	711	27.8	52.62	377.01	-113.63	1.07015	100	1	100	18.53	0	0	0	0	0	0	0	0	0	0	0;
	713	99.3	8.47	53.98	-20.79	1.03479	100	1	120	0	0	0	0	0	0	0	0	0	0	0	0;
	714	453.4	62.78	376.36	-114.08	1.06502	100	1	800	266.67	0	0	0	0	0	0	0	0	0	0	0;
	715	323.1	-67.84	66.42	-179.95	1.0216	100	1	366	122	0	0	0	0	0	0	0	0	0	0	0;
	727	384.26	-63.12	379.61	-111.09	1.07014	100	1	800	266.67	0	0	0	0	0	0	0	0	0	0	0;
	728	70.8	-18.79	35.73	-44.31	1.03038	100	1	74.28	0	0	0	0	0	0	0	0	0	0	0	0;
	735	170	-27.79	89.94	-122.06	1.02659	100	1	178.5	0	0	0	0	0	0	0	0	0	0	0	0;
	738	90.79	47.3	107.86	-95.15	1.03338	100	1	311.39	34.6	0	0	0	0	0	0	0	0	0	0	0;
	739	465.7	-58.22	212.97	-93.45	1.03544	100	1	500	166.67	0	0	0	0	0	0	0	0	0	0	0;
	749	198.88	4.93	105.69	-43.84	1.05355	100	1	240	0	0	0	0	0	0	0	0	0	0	0	0;
	751	65.9	-20.17	136.94	-47.24	1.02049	100	1	300	0	0	0	0	0	0	0	0	0	0	0	0;
	757	116.7	15.15	51.3	-23.41	1.01399	100	1	120	0	0	0	0	0	0	0	0	0	0	0	0;
	763	37.3	5.58	27.88	-8.97	1.0429	100	1	60	0	0	0	0	0	0	0	0	0	0	0	0;
	764	138.3	8.35	174.17	-71.12	1.04825	100	1	400	133.33	0	0	0	0	0	0	0	0	0	0	0;
	765	170.7	20.09	76.76	-33.84	1.01717	100	1	180	0	0	0	0	0	0	0	0	0	0	0	0;
	774	134.4	-8.34	81.57	-60.74	1.03899	100	1	141.12	0	0	0	0	0	0	0	0	0	0	0	0;
	776	-111.4	5.14	18.16	-6.73	1.02399	100	1	100	-148.53	0	0	0	0	0	0	0	0	0	0	0;
	778	16.5	-0.64	12.37	-9.36	1.04784	100	1	33.58	0	0	0	0	0	0	0	0	0	0	0	0;
	779	37.8	12.06	17.34	-7.58	1.0393	100	1	45	0	0	0	0	0	0	0	0	0	0	0	0;
	780	50.8	17.14	37.43	-12.32	1.00198	100	1	80	0	0	0	0	0	0	0	0	0	0	0	0;
	791	569.74	-78	567.63	-167.48	1.05209	100	1	1200	400	0	0	0	0	0	0	0	0	0	0	0;
	795	58.4	7.1	36.75	-13.04	1.04193	100	1	80	0	0	0	0	0	0	0	0	0	0	0	0;
	796	31.6	19.62	39	-10.74	1.01604	100	1	80	0	0	0	0	0	0	0	0	0	0	0	0;
	803	-89.2	9.91	74.03	-25.54	1.04662	100	1	100	-118.93	0	0	0	0	0	0	0	0	0	0	0;
	807	1597.5	-195.51	864.47	-360.97	1.05352	100	1	2000	666.67	0	0	0	0	0	0	0	0	0	0	0;
	813	505.6	0.16	309.08	-290.93	1.037	100	1	602	200.67	0	0	0	0	0	0	0	0	0	0	0;
	823	1274.2	287.09	926.68	-298.31	1.03905	100	1	2000	666.67	0	0	0	0	0	0	0	0	0	0	0;
	828	55.9	-11.69	20.87	-22.43	1.04438	100	1	58.7	0	0	0	0	0	0	0	0	0	0	0	0;
	831	85.2	16.49	55.59	-19.18	1.00327	100	1	120	0	0	0	0	0	0	0	0	0	0	0	0;
	832	507	137.14	264.71	-102.83	1.00458	100	1	600	200	0	0	0	0	0	0	0	0	0	0	0;
	837	44	7.99	27.19	-9.66	1.02274	100	1	60	0	0	0	0	0	0	0	0	0	0	0	0;
	844	97.5	14.12	54.35	-20.47	1.06442	100	1	120	0	0	0	0	0	0	0	0	0	0	0	0;
	848	4.03	-7.12	49.63	-38.12	1.01143	100	1	100	2.69	0	0	0	0	0	0	0	0	0	0	0;
	849	8.7	-1.18	6.45	-4.91	1.03726	100	1	17.57	0	0	0	0	0	0	0	0	0	0	0	0;
	851	59.56	41.16	96.64	-27.81	1.01884	100	1	200	0	0	0	0	0	0	0	0	0	0	0	0;
	858	855.6	160.89	440.67	-172.15	1.02881	100	1	1000	333.33	0	0	0	0	0	0	0	0	0	0	0;
	861	55.8	10.72	57.98	-16.68	1.05082	100	1	120	0	0	0	0	0	0	0	0	0	0	0	0;
	875	343.5	45.89	228.16	-78.19	1.03896	100	1	500	166.67	0	0	0	0	0	0	0	0	0	0	0;
	888	181.98	-7.29	138.6	-45.27	1.0376	100	1	300	100	0	0	0	0	0	0	0	0	0	0	0;
	891	1702.8	696.58	1097.41	-373.91	1.06296	100	1	2400	800	0	0	0	0	0	0	0	0	0	0	0;
	894	264.67	69.9	141.93	-57.74	1.0542	100	1	320	0	0	0	0	0	0	0	0	0	0	0	0;
	896	-2.7	-2.25	8.6	-11.4	1.02199	100	1	100	-3.6	0	0	0	0	0	0	0	0	0	0	0;
	913	1249.4	683.52	772.11	-269.94	1.02655	100	1	1700	566.67	0	0	0	0	0	0	0	0	0	0	0;
	916	230.2	-24.09	134.45	-49.76	1.02214	100	1	300	0	0	0	0	0	0	0	0	0	0	0	0;
	917	32	3.93	18.22	-6.73	1.06163	100	1	40	0	0	0	0	0	0	0	0	0	0	0	0;
	926	420	11.01	201.12	-87.96	1.00807	100	1	472	157.33	0	0	0	0	0	0	0	0	0	0	0;
	927	27.4	-2.86	28.69	-8.16	1.0679	100	1	60	0	0	0	0	0	0	0	0	0	0	0	0;
	930	679.6	-118	406.66	-144.75	1.05819	100	1	900	300	0	0	0	0	0	0	0	0	0	0	0;
	972	1221.2	407.52	934.73	-291.52	1.07861	100	1	2000	666.67	0	0	0	0	0	0	0	0	0	0	0;
	974	83.89	18.08	54.36	-20.21	1.03305	100	1	120	0	0	0	0	0	0	0	0	0	0	0	0;
	976	21.3	-5.46	36.02	-35.35	1.02433	100	1	107.83	0	0	0	0	0	0	0	0	0	0	0	0;
	978	14.9	0.14	6.43	-2.99	1.01732	100	1	15.15	0	0	0	0	0	0	0	0	0	0	0	0;
	983	1034.8	-256.65	948.36	-277.27	1.07804	100	1	2000	666.67	0	0	0	0	0	0	0	0	0	0	0;
	984	1029.2	8.1	738.93	-240.84	1.03196	100	1	1600	533.33	0	0	0	0	0	0	0	0	0	0	0;
	991	21.68	2.06	16.83	-8.05	1.00163	100	1	40	0	0	0	0	0	0	0	0	0	0	0	0;
	992	14.96	6.97	25.97	-10.87	1.03025	100	1	60	0	0	0	0	0	0	0	0	0	0	0	0;
	993	-136.9	5.75	17.85	-7.07	1.03725	100	1	100	-182.53	0	0	0	0	0	0	0	0	0	0	0;
	1001	92.1	23.68	55.02	-19.81	1.06987	100	1	120	0	0	0	0	0	0	0	0	0	0	0	0;
	1002	171	10.18	89.55	-35.15	1.03837	100	1	200	0	0	0	0	0	0	0	0	0	0	0	0;
	1004	86.4	35.09	43.99	-17.4	0.99944	100	1	100	0	0	0	0	0	0	0	0	0	0	0	0;
	1021	-179.3	8.75	58.34	-16.23	1.01234	100	1	100	-239.07	0	0	0	0	0	0	0	0	0	0	0;
	1029	138.6	5.85	90.64	-31.73	1.03789	100	1	200	0	0	0	0	0	0	0	0	0	0	0	0;
	1030	164.94	9.31	71.66	-27.89	1.00781	100	1	400	100	0	0	0	0	0	0	0	0	0	0	0;
	1036	202.5	0.73	137.39	-46.45	1.03707	100	1	300	100	0	0	0	0	0	0	0	0	0	0	0;
	1043	829.5	49.52	387.88	-163.4	1.02746	100	1	900	300	0	0	0	0	0	0	0	0	0	0	0;
	1050	337.91	1.63	173.5	-71.79	1.05537	100	1	518.72	252.05	0	0	0	0	0	0	0	0	0	0	0;
	1082	364.4	56.84	171.62	-73.5	1.02794	100	1	400	133.33	0	0	0	0	0	0	0	0	0	0	0;
	1083	91.8	8.04	54.91	-19.88	1.05051	100	1	120	0	0	0	0	0	0	0	0	0	0	0	0;
	1088	4.6	1.01	8.06	-3.66	1.02588	100	1	45.99	0	0	0	0	0	0	0	0	0	0	0	0;
	1093	837	97.07	550.69	-185.15	1.02459	100	1	1200	400	0	0	0	0	0	0	0	0	0	0	0;
	1097	17.5	-0.91	6.17	-6.64	1.01361	100	1	18.38	0	0	0	0	0	0	0	0	0	0	0	0;
	1098	93.35	-19.73	91.42	-31.24	1.10436	100	1	200	66.67	0	0	0	0	0	0	0	0	0	0	0;
	1100	58.2	6.13	36.8	-13.01	1.0423	100	1	80	0	0	0	0	0	0	0	0	0	0	0	0;
	1102	-124.15	12.14	38.05	-11.59	1.04816	100	1	100	-165.54	0	0	0	0	0	0	0	0	0	0	0;
	1103	405.69	-35.07	376.66	-112.66	1.04353	100	1	800	266.67	0	0	0	0	0	0	0	0	0	0	0;
	1117	744.1	-245.23	307.47	-487.11	1.00917	100	1	864	288	0	0	0	0	0	0	0	0	0	0	0;
	1119	298.7	-10.62	126.49	-57.33	1.04472	100	1	300	100	0	0	0	0	0	0	0	0	0	0	0;
	1121	289.79	-11.59	158.2	-62.81	1.01749	100	1	360	0	0	0	0	0	0	0	0	0	0	0	0;
	1122	75.2	2.31	68	-56.08	1.04387	100	1	190.28	0	0	0	0	0	0	0	0	0	0	0	0;
	1125	129.6	13.26	114.57	-34.74	1.04319	100	1	240	0	0	0	0	0	0	0	0	0	0	0	0;
	1131	667.5	108.89	407.66	-143.61	1.03698	100	1	900	300	0	0	0	0	0	0	0	0	0	0	0;
	1138	930.3	93.88	432.44	-180.7	1.08877	100	1	1000	333.33	0	0	0	0	0	0	0	0	0	0	0;
	1139	175.48	49.36	107.89	-41.5	1.05419	100	1	240	0	0	0	0	0	0	0	0	0	0	0	0;
	1145	173.47	-1.29	153.07	-144.24	1.04038	100	1	452.53	37.71	0	0	0	0	0	0	0	0	0	0	0;
	1173	-124.7	-0.42	1.85	-0.88	1.01854	100	1	100	-166.27	0	0	0	0	0	0	0	0	0	0	0;
	1174	26.8	5.65	18.61	-6.28	1.0028	100	1	40	0	0	0	0	0	0	0	0	0	0	0	0;
	1175	309.54	3.13	108.35	-39.12	1.03833	100	1	700	200	0	0	0	0	0	0	0	0	0	0	0;
	1176	6.7	13.93	94.13	-28.09	1.01619	100	1	100	4.46	0	0	0	0	0	0	0	0	0	0	0;
	1184	329.2	159.58	178.02	-67.55	1.03737	100	1	400	0	0	0	0	0	0	0	0	0	0	0	0;
	1220	107.4	57.33	84.07	-26.48	1.00865	100	1	180	0	0	0	0	0	0	0	0	0	0	0	0;
	1225	282.8	18.73	118.84	-55.64	1.05167	100	1	290.43	0	0	0	0	0	0	0	0	0	0	0	0;
	1237	1504.8	346.47	906.61	-319.44	1.10391	100	1	2000	666.67	0	0	0	0	0	0	0	0	0	0	0;
	1241	46.13	-7.09	22.29	-20.98	1.01958	100	1	65.63	0	0	0	0	0	0	0	0	0	0	0	0;
...
];

%% branch data
%	fbus	tbus	r	x	b	rateA	rateB	rateC	ratio	angle	status	angmin	angmax
mpc.branch = [
	1	7639	0.00775	0.03501	0	9999	9999	9999	0	0	1	-360	360;
	1	7835	0.01981	0.091539	0	9999	9999	9999	0	0	1	-360	360;
	1	7835	0.01944	0.093479	0	9999	9999	9999	0	0	1	-360	360;
	2	2447	0.00034	0.00162	0	9999	9999	9999	0	0	1	-360	360;
	2	4898	0.00051	0.00242	0	9999	9999	9999	0	0	1	-360	360;
	3	8189	0.01013	0.04238	0	9999	9999	9999	0	0	1	-360	360;
	3	8676	0.001841	0.0088	0	9999	9999	9999	0	0	1	-360	360;
	4	1813	0.00361	0.015211	0	9999	9999	9999	0	0	1	-360	360;
	9018	4	0.002169	0.00911	0	9999	9999	9999	0	0	1	-360	360;
	5	2675	0.015729	0.08824	0	9999	9999	9999	0	0	1	-360	360;
	5	5459	0.002909	0.01432	0	9999	9999	9999	0	0	1	-360	360;
	2923	6	0.00018	0.00224	0	9999	9999	9999	0	0	1	-360	360;
	6	3068	0.00046	0.0075	0	9999	9999	9999	0	0	1	-360	360;
	4610	6	0.00058	0.00736	0	9999	9999	9999	0	0	1	-360	360;
	5575	6	0.00034	0.00466	0	9999	9999	9999	0	0	1	-360	360;
	7	7208	0.015901	0.059529	0	9999	9999	9999	0	0	1	-360	360;
	7	8407	0.035174	0.062992	0	9999	9999	9999	0	0	1	-360	360;
	8	423	0.01129	0.05381	0	9999	9999	9999	0	0	1	-360	360;
	8	3212	7e-05	0.00068	0	9999	9999	9999	0	0	1	-360	360;
	8	6237	0.00669	0.05272	0	9999	9999	9999	0	0	1	-360	360;
	8	8472	0.003	0.03068	0	9999	9999	9999	0	0	1	-360	360;
	9	2287	0.00545	0.04299	0	9999	9999	9999	0	0	1	-360	360;
	8817	9	0.01616	0.05189	0	9999	9999	9999	0	0	1	-360	360;
	6630	10	0.000599	0.00186	0	9999	9999	9999	0	0	1	-360	360;
	11	5496	1e-07	0.00028	0	9999	9999	9999	0	0	1	-360	360;
	12	1637	0.004271	0.016431	0	9999	9999	9999	0	0	1	-360	360;
	12	2378	0.00232	0.00928	0	9999	9999	9999	0	0	1	-360	360;
	2822	13	0.004039	0.023081	0	9999	9999	9999	0	0	1	-360	360;
	2871	13	0.000599	0.00356	0	9999	9999	9999	0	0	1	-360	360;
	4516	13	0.011219	0.05245	0	9999	9999	9999	0	0	1	-360	360;
	14	436	0.00163	0.01819	0	9999	9999	9999	0	0	1	-360	360;
	14	2869	0.00213	0.01988	0	9999	9999	9999	0	0	1	-360	360;
	14	2869	0.00188	0.02029	0	9999	9999	9999	0	0	1	-360	360;
	5883	14	0.00241	0.02622	0	9999	9999	9999	0	0	1	-360	360;
	6741	14	0.00236	0.02672	0	9999	9999	9999	0	0	1	-360	360;
	8867	15	0.00013	0.00132	0	9999	9999	9999	0	0	1	-360	360;
	9216	15	0.000159	0.001461	0	9999	9999	9999	0	0	1	-360	360;
	1626	16	0.01802	0.05786	0	9999	9999	9999	0	0	1	-360	360;
	16	3708	0.02522	0.081	0	9999	9999	9999	0	0	1	-360	360;
	16	4199	0.04375	0.14048	0	9999	9999	9999	0	0	1	-360	360;
	16	5756	0.00591	0.01898	0	9999	9999	9999	0	0	1	-360	360;
	17	2029	0.024581	0.402459	0	9999	9999	9999	0	0	1	-360	360;
	17	2112	0.227149	1.24461	0	9999	9999	9999	0	0	1	-360	360;
	17	2112	1e-07	0.0002	0	9999	9999	9999	0	0	1	-360	360;
	2712	17	0.04388	0.657934	0	9999	9999	9999	0	0	1	-360	360;
	3176	17	0.18987	0.937128	0	9999	9999	9999	0	0	1	-360	360;
	17	4471	0.00157	0.007031	0	9999	9999	9999	0	0	1	-360	360;
	6981	17	0.12525	0.756384	0	9999	9999	9999	0	0	1	-360	360;
	17	8775	0.00163	0.007031	0	9999	9999	9999	0	0	1	-360	360;
	18	1214	0.0004	0.00439	0	9999	9999	9999	0	0	1	-360	360;
	18	1214	0.00045	0.00399	0	9999	9999	9999	0	0	1	-360	360;
	9154	18	0.00019	0.00198	0	9999	9999	9999	0	0	1	-360	360;
	9154	18	0.00019	0.00214	0	9999	9999	9999	0	0	1	-360	360;
	19	1219	0.03024	0.085372	0	9999	9999	9999	0	0	1	-360	360;
	6029	19	0.028132	0.097008	0	9999	9999	9999	0	0	1	-360	360;
	19	7390	0.04157	0.14924	0	9999	9999	9999	0	0	1	-360	360;
	19	8667	0.038661	0.123091	0	9999	9999	9999	0	0	1	-360	360;
	1044	20	0.00736	0.05805	0	9999	9999	9999	0	0	1	-360	360;
	20	2979	0.00394	0.01266	0	9999	9999	9999	0	0	1	-360	360;
	20	3943	0.03491	0.1121	0	9999	9999	9999	0	0	1	-360	360;
	20	8460	0.02534	0.08136	0	9999	9999	9999	0	0	1	-360	360;
	3670	21	0.000289	0.00138	0	9999	9999	9999	0	0	1	-360	360;
	21	6163	0.00013	0.00055	0	9999	9999	9999	0	0	1	-360	360;
	7047	21	0.00032	0.001409	0	9999	9999	9999	0	0	1	-360	360;
	7047	21	0.0003	0.000961	0	9999	9999	9999	0	0	1	-360	360;
	2083	22	0.00087	0.006591	0	9999	9999	9999	0	0	1	-360	360;
	23	1779	0.016157	0.035826	0	9999	9999	9999	0	0	1	-360	360;
	23	3144	0.003727	0.020529	0	9999	9999	9999	0	0	1	-360	360;
	23	6002	0.019992	0.079231	0	9999	9999	9999	0	0	1	-360	360;
	7246	23	0.011876	0.064967	0	9999	9999	9999	0	0	1	-360	360;
	24	3914	0.041554	0.156107	0	9999	9999	9999	0	0	1	-360	360;
	8343	24	0.051017	0.111273	0	9999	9999	9999	0	0	1	-360	360;
	3321	25	0.0003	0.002669	0	9999	9999	9999	0	0	1	-360	360;
	26	2479	0.00203	0.02416	0	9999	9999	9999	0	0	1	-360	360;
	26	4231	0.00103	0.00987	0	9999	9999	9999	0	0	1	-360	360;
	26	4598	0.001	0.01459	0	9999	9999	9999	0	0	1	-360	360;
	5016	26	0.00045	0.00608	0	9999	9999	9999	0	0	1	-360	360;
	26	5144	0.00041	0.00398	0	9999	9999	9999	0	0	1	-360	360;
	26	5144	0.00038	0.00483	0	9999	9999	9999	0	0	1	-360	360;
	26	6624	0.00256	0.03401	0	9999	9999	9999	0	0	1	-360	360;
	27	4847	0.00087	0.00898	0	9999	9999	9999	0	0	1	-360	360;
	28	8090	1e-07	0.000222	0	9999	9999	9999	0	0	1	-360	360;
	1198	29	0.0023	0.01581	0	9999	9999	9999	0	0	1	-360	360;
	9203	29	0.00105	0.00877	0	9999	9999	9999	0	0	1	-360	360;
	1166	30	0.003809	0.013111	0	9999	9999	9999	0	0	1	-360	360;
	1296	30	0.003729	0.013218	0	9999	9999	9999	0	0	1	-360	360;
	5506	31	0.01124	0.039822	0	9999	9999	9999	0	0	1	-360	360;
	5553	31	0.02836	0.1134	0	9999	9999	9999	0	0	1	-360	360;
	6322	31	0.054	0.121351	0	9999	9999	9999	0	0	1	-360	360;
	31	7734	0.043418	0.124111	0	9999	9999	9999	0	0	1	-360	360;
	8848	31	1e-07	0.000222	0	9999	9999	9999	0	0	1	-360	360;
	249	32	9.1e-05	0.000961	0	9999	9999	9999	0	0	1	-360	360;
	1391	32	0.02818	0.116099	0	9999	9999	9999	0	0	1	-360	360;
	32	2143	0.00324	0.01912	0	9999	9999	9999	0	0	1	-360	360;
	7819	32	0.027	0.131289	0	9999	9999	9999	0	0	1	-360	360;
	9043	32	0.02626	0.15576	0	9999	9999	9999	0	0	1	-360	360;
	33	3334	0.000211	0.001659	0	9999	9999	9999	0	0	1	-360	360;
	34	636	0.060471	0.109992	0	9999	9999	9999	0	0	1	-360	360;
	1324	34	0.060331	0.128752	0	9999	9999	9999	0	0	1	-360	360;
	5676	34	0.021959	0.050058	0	9999	9999	9999	0	0	1	-360	360;
	34	7022	0.037752	0.085843	0	9999	9999	9999	0	0	1	-360	360;
	35	3490	0.018471	0.041802	0	9999	9999	9999	0	0	1	-360	360;
	35	8837	0.011331	0.023636	0	9999	9999	9999	0	0	1	-360	360;
	665	36	0.00519	0.028151	0	9999	9999	9999	0	0	1	-360	360;
	1438	36	0.00318	0.021159	0	9999	9999	9999	0	0	1	-360	360;
	1438	36	0.00324	0.02076	0	9999	9999	9999	0	0	1	-360	360;
	36	2369	0.008841	0.0587	0	9999	9999	9999	0	0	1	-360	360;
	2386	36	0.00126	0.007531	0	9999	9999	9999	0	0	1	-360	360;
	2865	36	0.01137	0.056789	0	9999	9999	9999	0	0	1	-360	360;
	1306	37	0.017843	0.068107	0	9999	9999	9999	0	0	1	-360	360;
	5076	37	0.019099	0.057876	0	9999	9999	9999	0	0	1	-360	360;
	37	5132	0.05019	0.152107	0	9999	9999	9999	0	0	1	-360	360;
	6409	37	0.020727	0.053512	0	9999	9999	9999	0	0	1	-360	360;
	6792	37	0.016893	0.050967	0	9999	9999	9999	0	0	1	-360	360;
	6792	37	0.016562	0.052033	0	9999	9999	9999	0	0	1	-360	360;
	76	38	1e-07	0.000469	0	9999	9999	9999	0	0	1	-360	360;
	2523	38	0.00094	0.012531	0	9999	9999	9999	0	0	1	-360	360;
	4248	38	0.00106	0.01595	0	9999	9999	9999	0	0	1	-360	360;
	38	5742	0.000219	0.00088	0	9999	9999	9999	0	0	1	-360	360;
	38	6118	0.000289	0.001039	0	9999	9999	9999	0	0	1	-360	360;
	39	1174	0.002009	0.01464	0	9999	9999	9999	0	0	1	-360	360;
	8197	39	0.00076	0.005622	0	9999	9999	9999	0	0	1	-360	360;
	40	5123	0.01595	0.022281	0	9999	9999	9999	0	0	1	-360	360;
	1474	41	0.04645	0.14916	0	9999	9999	9999	0	0	1	-360	360;
	8682	41	0.03001	0.09637	0	9999	9999	9999	0	0	1	-360	360;
	42	2096	0.00163	0.01287	0	9999	9999	9999	0	0	1	-360	360;
	42	5919	0.00055	0.00621	0	9999	9999	9999	0	0	1	-360	360;
	43	3783	0.00637	0.05021	0	9999	9999	9999	0	0	1	-360	360;
	9103	43	0.0044	0.03467	0	9999	9999	9999	0	0	1	-360	360;
	44	1545	0.002659	0.02	0	9999	9999	9999	0	0	1	-360	360;
	44	3541	0.003031	0.02343	0	9999	9999	9999	0	0	1	-360	360;
	6313	44	0.0035	0.022211	0	9999	9999	9999	0	0	1	-360	360;
	8628	44	0.003591	0.02137	0	9999	9999	9999	0	0	1	-360	360;
	45	915	0.018868	0.083661	0	9999	9999	9999	0	0	1	-360	360;
	3534	45	0.004562	0.017174	0	9999	9999	9999	0	0	1	-360	360;
	45	4877	0.01019	0.027917	0	9999	9999	9999	0	0	1	-360	360;
	46	1286	0.073463	0.189678	0	9999	9999	9999	0	0	1	-360	360;
	46	4029	0.016339	0.035909	0	9999	9999	9999	0	0	1	-360	360;
	47	2221	0.029273	0.069752	0	9999	9999	9999	0	0	1	-360	360;
	47	2609	0.023678	0.070702	0	9999	9999	9999	0	0	1	-360	360;
	1710	48	0.017562	0.070818	0	9999	9999	9999	0	0	1	-360	360;
	48	3575	0.017719	0.054017	0	9999	9999	9999	0	0	1	-360	360;
	49	1236	0.0053	0.035521	0	9999	9999	9999	0	0	1	-360	360;
	1327	49	0.003599	0.02026	0	9999	9999	9999	0	0	1	-360	360;
	1327	49	0.00318	0.020669	0	9999	9999	9999	0	0	1	-360	360;
	49	2803	0.00486	0.024331	0	9999	9999	9999	0	0	1	-360	360;
	49	6992	0.00663	0.04181	0	9999	9999	9999	0	0	1	-360	360;
	1460	50	0.00814	0.06417	0	9999	9999	9999	0	0	1	-360	360;
	3439	50	0.01926	0.11812	0	9999	9999	9999	0	0	1	-360	360;
	50	4459	0.01127	0.0691	0	9999	9999	9999	0	0	1	-360	360;
	4812	50	0.0077	0.04725	0	9999	9999	9999	0	0	1	-360	360;
	8937	50	0.00665	0.04082	0	9999	9999	9999	0	0	1	-360	360;
	8937	50	0.00665	0.04082	0	9999	9999	9999	0	0	1	-360	360;
	51	2517	0.007729	0.025401	0	9999	9999	9999	0	0	1	-360	360;
	51	5670	0.00295	0.0162	0	9999	9999	9999	0	0	1	-360	360;
	51	6174	0.001581	0.0087	0	9999	9999	9999	0	0	1	-360	360;
	52	199	0.00772	0.033818	0	9999	9999	9999	0	0	1	-360	360;
	52	928	0.003071	0.004551	0	9999	9999	9999	0	0	1	-360	360;
	52	928	0.003009	0.004649	0	9999	9999	9999	0	0	1	-360	360;
	52	2494	9.8e-05	0.000222	0	9999	9999	9999	0	0	1	-360	360;
	52	7195	0.008009	0.04	0	9999	9999	9999	0	0	1	-360	360;
	8613	52	0.002671	0.018929	0	9999	9999	9999	0	0	1	-360	360;
	52	9007	0.000822	0.00656	0	9999	9999	9999	0	0	1	-360	360;
	53	4031	0.003711	0.024219	0	9999	9999	9999	0	0	1	-360	360;
	6474	53	0.00205	0.014229	0	9999	9999	9999	0	0	1	-360	360;
	1261	54	0.0137	0.10436	0	9999	9999	9999	0	0	1	-360	360;
	54	8521	0.004909	0.02468	0	9999	9999	9999	0	0	1	-360	360;
	8774	54	0.00795	0.0483	0	9999	9999	9999	0	0	1	-360	360;
	55	2413	0.00076	0.00364	0	9999	9999	9999	0	0	1	-360	360;
	55	5965	0.00075	0.00474	0	9999	9999	9999	0	0	1	-360	360;
	56	397	0.005081	0.02426	0	9999	9999	9999	0	0	1	-360	360;
	1624	56	0.470062	1.36364	0	9999	9999	9999	0	0	1	-360	360;
	56	7127	0.035969	0.35219	0	9999	9999	9999	0	0	1	-360	360;
	56	9165	0.018021	0.1825	0	9999	9999	9999	0	0	1	-360	360;
	56	9165	0.0033	0.01864	0	9999	9999	9999	0	0	1	-360	360;
	2064	57	0.01485	0.07078	0	9999	9999	9999	0	0	1	-360	360;
	57	6945	0.01183	0.0564	0	9999	9999	9999	0	0	1	-360	360;
	57	8075	0.00432	0.03405	0	9999	9999	9999	0	0	1	-360	360;
	58	221	0.0003	0.00385	0	9999	9999	9999	0	0	1	-360	360;
	59	2360	0.00239	0.017281	0	9999	9999	9999	0	0	1	-360	360;
	59	5764	0.00339	0.019669	0	9999	9999	9999	0	0	1	-360	360;
	60	6786	0.01438	0.045364	0	9999	9999	9999	0	0	1	-360	360;
	60	7265	0.037248	0.081901	0	9999	9999	9999	0	0	1	-360	360;
	61	2532	0.00016	0.00194	0	9999	9999	9999	0	0	1	-360	360;
	61	2532	0.00017	0.00191	0	9999	9999	9999	0	0	1	-360	360;
	61	6811	8e-05	0.00081	0	9999	9999	9999	0	0	1	-360	360;
	61	6811	7e-05	0.00085	0	9999	9999	9999	0	0	1	-360	360;
	61	7934	0.00048	0.00322	0	9999	9999	9999	0	0	1	-360	360;
	61	7934	0.0005	0.00317	0	9999	9999	9999	0	0	1	-360	360;
	62	4451	0.038017	0.110653	0	9999	9999	9999	0	0	1	-360	360;
	5135	62	0.025174	0.07938	0	9999	9999	9999	0	0	1	-360	360;
	5474	62	0.043017	0.128446	0	9999	9999	9999	0	0	1	-360	360;
	7486	62	1e-07	0.00076	0	9999	9999	9999	0	0	1	-360	360;
	63	92	0.521247	2.92722	0	9999	9999	9999	0	0	1	-360	360;
	1268	63	1.8606	8.19391	0	9999	9999	9999	0	0	1	-360	360;
	63	2724	0.00082	0.01007	0	9999	9999	9999	0	0	1	-360	360;
	63	2724	0.188989	1.11489	0	9999	9999	9999	0	0	1	-360	360;
	63	2891	5.54058	14.446	0	9999	9999	9999	0	0	1	-360	360;
	63	4737	0.842036	5.10651	0	9999	9999	9999	0	0	1	-360	360;
	63	5523	0.0144	1.92105	0	9999	9999	9999	0	0	1	-360	360;
...
];

%%-----  OPF Data  -----%%
%% generator cost data
%	1	startup	shutdown	n	x1	y1	...	xn	yn
%	2	startup	shutdown	n	c(n-1)	...	c0
mpc.gencost = [
	2	0	0	3	0	1	0;
	2	0	0	3	0	1	0;
	2	0	0	3	0	1	0;
	2	0	0	3	0	1	0;
	2	0	0	3	0	1	0;
	2	0	0	3	0	1	0;
	2	0	0	3	0	1	0;
	2	0	0	3	0	1	0;
	2	0	0	3	0	1	0;
	2	0	0	3	0	1	0;
	2	0	0	3	0	1	0;
	2	0	0	3	0	1	0;
	2	0	0	3	0	1	0;
	2	0	0	3	0	1	0;
	2	0	0	3	0	1	0;
	2	0	0	3	0	1	0;
	2	0	0	3	0	1	0;
	2	0	0	3	0	1	0;
	2	0	0	3	0	1	0;
	2	0	0	3	0	1	0;
	2	0	0	3	0	1	0;
	2	0	0	3	0	1	0;
	2	0	0	3	0	1	0;
	2	0	0	3	0	1	0;
	2	0	0	3	0	1	0;
	2	0	0	3	0	1	0;
	2	0	0	3	0	1	0;
	2	0	0	3	0	1	0;
	2	0	0	3	0	1	0;
	2	0	0	3	0	1	0;
	2	0	0	3	0	1	0;
	2	0	0	3	0	1	0;
	2	0	0	3	0	1	0;
	2	0	0	3	0	1	0;
	2	0	0	3	0	1	0;
	2	0	0	3	0	1	0;
	2	0	0	3	0	1	0;
	2	0	0	3	0	1	0;
	2	0	0	3	0	1	0;
	2	0	0	3	0	1	0;
	2	0	0	3	0	1	0;
	2	0	0	3	0	1	0;
	2	0	0	3	0	1	0;
	2	0	0	3	0	1	0;
	2	0	0	3	0	1	0;
	2	0	0	3	0	1	0;
	2	0	0	3	0	1	0;
	2	0	0	3	0	1	0;
	2	0	0	3	0	1	0;
	2	0	0	3	0	1	0;
	2	0	0	3	0	1	0;
	2	0	0	3	0	1	0;
	2	0	0	3	0	1	0;
	2	0	0	3	0	1	0;
	2	0	0	3	0	1	0;
	2	0	0	3	0	1	0;
	2	0	0	3	0	1	0;
	2	0	0	3	0	1	0;
	2	0	0	3	0	1	0;
	2	0	0	3	0	1	0;
	2	0	0	3	0	1	0;
	2	0	0	3	0	1	0;
	2	0	0	3	0	1	0;
	2	0	0	3	0	1	0;
	2	0	0	3	0	1	0;
	2	0	0	3	0	1	0;
	2	0	0	3	0	1	0;
	2	0	0	3	0	1	0;
	2	0	0	3	0	1	0;
	2	0	0	3	0	1	0;
	2	0	0	3	0	1	0;
	2	0	0	3	0	1	0;
	2	0	0	3	0	1	0;
	2	0	0	3	0	1	0;
	2	0	0	3	0	1	0;
	2	0	0	3	0	1	0;
	2	0	0	3	0	1	0;
	2	0	0	3	0	1	0;
	2	0	0	3	0	1	0;
	2	0	0	3	0	1	0;
	2	0	0	3	0	1	0;
	2	0	0	3	0	1	0;
	2	0	0	3	0	1	0;
	2	0	0	3	0	1	0;
	2	0	0	3	0	1	0;
	2	0	0	3	0	1	0;
	2	0	0	3	0	1	0;
	2	0	0	3	0	1	0;
	2	0	0	3	0	1	0;
	2	0	0	3	0	1	0;
	2	0	0	3	0	1	0;
	2	0	0	3	0	1	0;
	2	0	0	3	0	1	0;
	2	0	0	3	0	1	0;
	2	0	0	3	0	1	0;
	2	0	0	3	0	1	0;
	2	0	0	3	0	1	0;
	2	0	0	3	0	1	0;
	2	0	0	3	0	1	0;
	2	0	0	3	0	1	0;
	2	0	0	3	0	1	0;
	2	0	0	3	0	1	0;
	2	0	0	3	0	1	0;
	2	0	0	3	0	1	0;
	2	0	0	3	0	1	0;
	2	0	0	3	0	1	0;
	2	0	0	3	0	1	0;
	2	0	0	3	0	1	0;
	2	0	0	3	0	1	0;
	2	0	0	3	0	1	0;
	2	0	0	3	0	1	0;
	2	0	0	3	0	1	0;
	2	0	0	3	0	1	0;
	2	0	0	3	0	1	0;
	2	0	0	3	0	1	0;
	2	0	0	3	0	1	0;
	2	0	0	3	0	1	0;
	2	0	0	3	0	1	0;
	2	0	0	3	0	1	0;
	2	0	0	3	0	1	0;
	2	0	0	3	0	1	0;
	2	0	0	3	0	1	0;
	2	0	0	3	0	1	0;
	2	0	0	3	0	1	0;
	2	0	0	3	0	1	0;
	2	0	0	3	0	1	0;
	2	0	0	3	0	1	0;
	2	0	0	3	0	1	0;
	2	0	0	3	0	1	0;
	2	0	0	3	0	1	0;
	2	0	0	3	0	1	0;
	2	0	0	3	0	1	0;
	2	0	0	3	0	1	0;
	2	0	0	3	0	1	0;
	2	0	0	3	0	1	0;
	2	0	0	3	0	1	0;
	2	0	0	3	0	1	0;
	2	0	0	3	0	1	0;
	2	0	0	3	0	1	0;
	2	0	0	3	0	1	0;
	2	0	0	3	0	1	0;
	2	0	0	3	0	1	0;
	2	0	0	3	0	1	0;
	2	0	0	3	0	1	0;
	2	0	0	3	0	1	0;
	2	0	0	3	0	1	0;
	2	0	0	3	0	1	0;
	2	0	0	3	0	1	0;
	2	0	0	3	0	1	0;
	2	0	0	3	0	1	0;
	2	0	0	3	0	1	0;
	2	0	0	3	0	1	0;
	2	0	0	3	0	1	0;
	2	0	0	3	0	1	0;
	2	0	0	3	0	1	0;
	2	0	0	3	0	1	0;
	2	0	0	3	0	1	0;
	2	0	0	3	0	1	0;
	2	0	0	3	0	1	0;
	2	0	0	3	0	1	0;
	2	0	0	3	0	1	0;
	2	0	0	3	0	1	0;
	2	0	0	3	0	1	0;
	2	0	0	3	0	1	0;
	2	0	0	3	0	1	0;
	2	0	0	3	0	1	0;
	2	0	0	3	0	1	0;
	2	0	0	3	0	1	0;
	2	0	0	3	0	1	0;
	2	0	0	3	0	1	0;
	2	0	0	3	0	1	0;
	2	0	0	3	0	1	0;
	2	0	0	3	0	1	0;
	2	0	0	3	0	1	0;
	2	0	0	3	0	1	0;
	2	0	0	3	0	1	0;
	2	0	0	3	0	1	0;
	2	0	0	3	0	1	0;
	2	0	0	3	0	1	0;
	2	0	0	3	0	1	0;
	2	0	0	3	0	1	0;
	2	0	0	3	0	1	0;
	2	0	0	3	0	1	0;
	2	0	0	3	0	1	0;
	2	0	0	3	0	1	0;
	2	0	0	3	0	1	0;
	2	0	0	3	0	1	0;
	2	0	0	3	0	1	0;
	2	0	0	3	0	1	0;
	2	0	0	3	0	1	0;
	2	0	0	3	0	1	0;
	2	0	0	3	0	1	0;
	2	0	0	3	0	1	0;
	2	0	0	3	0	1	0;
	2	0	0	3	0	1	0;
	2	0	0	3	0	1	0;
	2	0	0	3	0	1	0;
	2	0	0	3	0	1	0;
	2	0	0	3	0	1	0;
	2	0	0	3	0	1	0;
...
];

%% bus names
mpc.bus_name = {
	'1           ';
	'2           ';
	'3           ';
	'4           ';
	'5           ';
	'6           ';
	'7           ';
	'8           ';
	'9           ';
	'10          ';
	'11          ';
	'12          ';
	'13          ';
	'14          ';
	'15          ';
	'16          ';
	'17          ';
	'18          ';
	'19          ';
	'20          ';
	'21          ';
	'22          ';
	'23          ';
	'24          ';
	'25          ';
	'26          ';
	'27          ';
	'28          ';
	'29          ';
	'30          ';
	'31          ';
	'32          ';
	'33          ';
	'34          ';
	'35          ';
	'36          ';
	'37          ';
	'38          ';
	'39          ';
	'40          ';
	'41          ';
	'42          ';
	'43          ';
	'44          ';
	'45          ';
	'46          ';
	'47          ';
	'48          ';
	'49          ';
	'50          ';
	'51          ';
	'52          ';
	'53          ';
	'54          ';
	'55          ';
	'56          ';
	'57          ';
	'58          ';
	'59          ';
	'60          ';
	'61          ';
	'62          ';
	'63          ';
	'64          ';
	'65          ';
	'66          ';
	'67          ';
	'68          ';
	'69          ';
	'70          ';
	'71          ';
	'72          ';
	'73          ';
	'74          ';
	'75          ';
	'76          ';
	'77          ';
	'78          ';
	'79          ';
	'80          ';
	'81          ';
	'82          ';
	'83          ';
	'84          ';
	'85          ';
	'86          ';
	'87          ';
	'88          ';
	'89          ';
	'90          ';
	'91          ';
	'92          ';
	'93          ';
	'94          ';
	'95          ';
	'96          ';
	'97          ';
	'98          ';
	'99          ';
	'100         ';
	'101         ';
	'102         ';
	'103         ';
	'104         ';
	'105         ';
	'106         ';
	'107         ';
	'108         ';
	'109         ';
	'110         ';
	'111         ';
	'112         ';
	'113         ';
	'114         ';
	'115         ';
	'116         ';
	'117         ';
	'118         ';
	'119         ';
	'120         ';
	'121         ';
	'122         ';
	'123         ';
	'124         ';
	'125         ';
	'126         ';
	'127         ';
	'128         ';
	'129         ';
	'130         ';
	'131         ';
	'132         ';
	'133         ';
	'134         ';
	'135         ';
	'136         ';
	'137         ';
	'138         ';
	'139         ';
	'140         ';
	'141         ';
	'142         ';
	'143         ';
	'144         ';
	'145         ';
	'146         ';
	'147         ';
	'148         ';
	'149         ';
	'150         ';
	'151         ';
	'152         ';
	'153         ';
	'154         ';
	'155         ';
	'156         ';
	'157         ';
	'158         ';
	'159         ';
	'160         ';
	'161         ';
	'162         ';
	'163         ';
	'164         ';
	'165         ';
	'166         ';
	'167         ';
	'168         ';
	'169         ';
	'170         ';
	'171         ';
	'172         ';
	'173         ';
	'174         ';
	'175         ';
	'176         ';
	'177         ';
	'178         ';
	'179         ';
	'180         ';
	'181         ';
	'182         ';
	'183         ';
	'184         ';
	'185         ';
	'186         ';
	'187         ';
	'188         ';
	'189         ';
	'190         ';
	'191         ';
	'192         ';
	'193         ';
	'194         ';
	'195         ';
	'196         ';
	'197         ';
	'198         ';
	'199         ';
	'200         ';
...
};
